ieee123_VLN_Node_script.Txt

LINE-GROUND and LINE-LINE VOLTAGES BY BUS & NODE

Bus      Node    VLN (kV)   Angle      pu     Base kV    Node-Node   VLL (kV)  Angle      pu

150 .... 1       2.4018 /_    0.0   0.99999     4.160        1-2       4.16 /_   30.0   0.99999
   -     2       2.4018 /_ -120.0   0.99999     4.160        2-3       4.16 /_  -90.0   0.99999
   -     3       2.4018 /_  120.0   0.99999     4.160        3-1       4.16 /_  150.0   0.99999
150R ... 1       2.4918 /_    0.0    1.0375     4.160        1-2     4.3159 /_   30.0    1.0375
   -     2       2.4918 /_ -120.0    1.0375     4.160        2-3      4.316 /_  -90.0    1.0375
   -     3       2.4918 /_  120.0    1.0375     4.160        3-1      4.316 /_  150.0    1.0375
149 .... 1       2.4918 /_    0.0    1.0375     4.160        1-2     4.3159 /_   30.0    1.0375
   -     2       2.4918 /_ -120.0    1.0375     4.160        2-3      4.316 /_  -90.0    1.0375
   -     3       2.4918 /_  120.0    1.0375     4.160        3-1      4.316 /_  150.0    1.0375
1 ...... 1       2.4617 /_   -0.6     1.025     4.160        1-2     4.2778 /_   29.7    1.0283
   -     2       2.4861 /_ -120.3    1.0351     4.160        2-3     4.2939 /_  -90.5    1.0322
   -     3       2.4704 /_  119.6    1.0286     4.160        3-1     4.2771 /_  149.4    1.0282
2 ...... 2       2.4856 /_ -120.3    1.0349     4.160
3 ...... 3       2.4665 /_  119.6    1.0269     4.160
7 ...... 1       2.4393 /_   -1.1    1.0156     4.160        1-2     4.2502 /_   29.4    1.0217
   -     2       2.4821 /_ -120.6    1.0334     4.160        2-3     4.2785 /_  -90.8    1.0285
   -     3       2.4567 /_  119.4    1.0229     4.160        3-1     4.2506 /_  149.0    1.0218
4 ...... 3       2.4653 /_  119.6    1.0264     4.160
5 ...... 3       2.4634 /_  119.6    1.0256     4.160
6 ...... 3       2.4617 /_  119.6     1.025     4.160
8 ...... 1       2.4248 /_   -1.4    1.0096     4.160        1-2      4.232 /_   29.3    1.0173
   -     2       2.4793 /_ -120.7    1.0323     4.160        2-3     4.2682 /_  -91.0     1.026
   -     3       2.4476 /_  119.2    1.0191     4.160        3-1     4.2331 /_  148.7    1.0176
12 ..... 2       2.4786 /_ -120.7     1.032     4.160
9 ...... 1       2.4212 /_   -1.5    1.0081     4.160
13 ..... 1       2.4055 /_   -1.9    1.0016     4.160        1-2     4.2067 /_   29.0    1.0112
   -     2       2.4741 /_ -121.0    1.0301     4.160        2-3      4.253 /_  -91.3    1.0224
   -     3        2.434 /_  118.9    1.0134     4.160        3-1     4.2077 /_  148.3    1.0115
9R ..... 1       2.4212 /_   -1.5    1.0081     4.160
14 ..... 1       2.4172 /_   -1.5    1.0064     4.160
34 ..... 3       2.4316 /_  118.9    1.0124     4.160
18 ..... 1       2.3839 /_   -2.3   0.99254     4.160        1-2     4.1758 /_   28.8    1.0038
   -     2       2.4642 /_ -121.2     1.026     4.160        2-3     4.2251 /_  -91.5    1.0157
   -     3       2.4161 /_  118.8     1.006     4.160        3-1     4.1807 /_  148.1     1.005
11 ..... 1       2.4156 /_   -1.5    1.0057     4.160
10 ..... 1       2.4164 /_   -1.5    1.0061     4.160
15 ..... 3       2.4306 /_  118.9     1.012     4.160
16 ..... 3       2.4283 /_  118.9     1.011     4.160
17 ..... 3       2.4296 /_  118.9    1.0116     4.160
19 ..... 1       2.3807 /_   -2.3   0.99122     4.160
21 ..... 1       2.3825 /_   -2.4   0.99199     4.160        1-2     4.1736 /_   28.8    1.0033
   -     2       2.4644 /_ -121.2    1.0261     4.160        2-3     4.2233 /_  -91.5    1.0152
   -     3       2.4133 /_  118.8    1.0048     4.160        3-1     4.1778 /_  148.0    1.0043
20 ..... 1       2.3786 /_   -2.3   0.99037     4.160
22 ..... 2        2.461 /_ -121.2    1.0246     4.160
23 ..... 1       2.3815 /_   -2.4   0.99158     4.160        1-2      4.172 /_   28.8    1.0029
   -     2       2.4653 /_ -121.2    1.0264     4.160        2-3     4.2224 /_  -91.6     1.015
   -     3       2.4106 /_  118.8    1.0037     4.160        3-1     4.1753 /_  148.0    1.0037
24 ..... 3       2.4071 /_  118.8    1.0022     4.160
25 ..... 1         2.38 /_   -2.5   0.99091     4.160        1-2     4.1702 /_   28.8    1.0025
   -     2       2.4664 /_ -121.2    1.0269     4.160        2-3     4.2217 /_  -91.6    1.0148
   -     3       2.4085 /_  118.8    1.0028     4.160        3-1     4.1732 /_  148.0    1.0032
25R .... 1       2.4097 /_   -2.5    1.0033     4.160
   -     3       2.4085 /_  118.8    1.0028     4.160        3-1     4.1991 /_  148.2    1.0094
26 ..... 1       2.4091 /_   -2.5     1.003     4.160
   -     3       2.4073 /_  118.8    1.0023     4.160        3-1     4.1979 /_  148.2    1.0091
28 ..... 1       2.3791 /_   -2.5   0.99055     4.160        1-2     4.1693 /_   28.8    1.0022
   -     2       2.4669 /_ -121.2    1.0271     4.160        2-3     4.2215 /_  -91.6    1.0148
   -     3       2.4076 /_  118.8    1.0024     4.160        3-1     4.1724 /_  148.0     1.003
27 ..... 1       2.4082 /_   -2.5    1.0027     4.160
   -     3       2.4072 /_  118.8    1.0023     4.160        3-1     4.1976 /_  148.2     1.009
31 ..... 3       2.4059 /_  118.8    1.0017     4.160
33 ..... 1       2.4051 /_   -2.5    1.0014     4.160
29 ..... 1       2.3787 /_   -2.5   0.99038     4.160        1-2     4.1687 /_   28.8    1.0021
   -     2       2.4673 /_ -121.2    1.0273     4.160        2-3     4.2211 /_  -91.6    1.0147
   -     3       2.4066 /_  118.8     1.002     4.160        3-1     4.1714 /_  148.0    1.0027
30 ..... 1       2.3793 /_   -2.5   0.99065     4.160        1-2     4.1688 /_   28.8    1.0021
   -     2       2.4672 /_ -121.2    1.0272     4.160        2-3     4.2208 /_  -91.6    1.0146
   -     3       2.4055 /_  118.8    1.0015     4.160        3-1     4.1706 /_  148.0    1.0025
250 .... 1       2.3793 /_   -2.5   0.99065     4.160        1-2     4.1688 /_   28.8    1.0021
   -     2       2.4672 /_ -121.2    1.0272     4.160        2-3     4.2208 /_  -91.6    1.0146
   -     3       2.4055 /_  118.8    1.0015     4.160        3-1     4.1706 /_  148.0    1.0025
32 ..... 3       2.4049 /_  118.8    1.0013     4.160
35 ..... 1       2.3772 /_   -2.4   0.98977     4.160        1-2     4.1648 /_   28.7    1.0011
   -     2       2.4581 /_ -121.3    1.0235     4.160        2-3     4.2171 /_  -91.6    1.0137
   -     3       2.4136 /_  118.8    1.0049     4.160        3-1     4.1732 /_  148.0    1.0032
36 ..... 1        2.375 /_   -2.4   0.98884     4.160        1-2     4.1624 /_   28.7    1.0006
   -     2        2.457 /_ -121.4     1.023     4.160
40 ..... 1       2.3736 /_   -2.4   0.98825     4.160        1-2     4.1595 /_   28.7   0.99987
   -     2       2.4554 /_ -121.4    1.0223     4.160        2-3     4.2125 /_  -91.6    1.0126
   -     3       2.4111 /_  118.7    1.0039     4.160        3-1     4.1677 /_  147.9    1.0018
37 ..... 1       2.3731 /_   -2.4   0.98806     4.160
38 ..... 2       2.4554 /_ -121.4    1.0223     4.160
39 ..... 2       2.4544 /_ -121.4    1.0219     4.160
41 ..... 3         2.41 /_  118.7    1.0034     4.160
42 ..... 1       2.3697 /_   -2.5   0.98666     4.160        1-2     4.1542 /_   28.6   0.99861
   -     2       2.4527 /_ -121.4    1.0212     4.160        2-3     4.2081 /_  -91.7    1.0116
   -     3       2.4089 /_  118.7     1.003     4.160        3-1     4.1624 /_  147.9    1.0006
43 ..... 2       2.4494 /_ -121.4    1.0198     4.160
44 ..... 1       2.3671 /_   -2.5   0.98557     4.160        1-2     4.1504 /_   28.6    0.9977
   -     2        2.451 /_ -121.4    1.0205     4.160        2-3      4.205 /_  -91.7    1.0108
   -     3        2.407 /_  118.7    1.0022     4.160        3-1     4.1584 /_  147.8   0.99962
45 ..... 1       2.3658 /_   -2.5   0.98504     4.160
47 ..... 1       2.3646 /_   -2.5   0.98453     4.160        1-2     4.1463 /_   28.6    0.9967
   -     2       2.4484 /_ -121.5    1.0194     4.160        2-3      4.201 /_  -91.7    1.0099
   -     3       2.4046 /_  118.6    1.0012     4.160        3-1     4.1536 /_  147.8   0.99847
46 ..... 1       2.3649 /_   -2.5   0.98464     4.160
48 ..... 1        2.364 /_   -2.5   0.98426     4.160        1-2     4.1451 /_   28.6   0.99642
   -     2       2.4477 /_ -121.5    1.0191     4.160        2-3        4.2 /_  -91.7    1.0096
   -     3        2.404 /_  118.6    1.0009     4.160        3-1     4.1525 /_  147.8   0.99821
49 ..... 1        2.364 /_   -2.5   0.98425     4.160        1-2     4.1446 /_   28.6   0.99629
   -     2       2.4471 /_ -121.5    1.0189     4.160        2-3     4.1995 /_  -91.7    1.0095
   -     3       2.4038 /_  118.6    1.0008     4.160        3-1      4.152 /_  147.8   0.99809
50 ..... 1       2.3639 /_   -2.5   0.98423     4.160        1-2     4.1442 /_   28.6   0.99619
   -     2       2.4471 /_ -121.5    1.0189     4.160        2-3     4.1993 /_  -91.7    1.0094
   -     3        2.403 /_  118.6    1.0005     4.160        3-1     4.1513 /_  147.8    0.9979
51 ..... 1       2.3635 /_   -2.5   0.98407     4.160        1-2     4.1438 /_   28.6   0.99612
   -     2       2.4473 /_ -121.5     1.019     4.160        2-3     4.1993 /_  -91.7    1.0095
   -     3       2.4029 /_  118.6    1.0005     4.160        3-1     4.1511 /_  147.8   0.99787
151 .... 1       2.3635 /_   -2.5   0.98407     4.160        1-2     4.1438 /_   28.6   0.99612
   -     2       2.4473 /_ -121.5     1.019     4.160        2-3     4.1993 /_  -91.7    1.0095
   -     3       2.4029 /_  118.6    1.0005     4.160        3-1     4.1511 /_  147.8   0.99787
52 ..... 1       2.3911 /_   -2.3   0.99555     4.160        1-2     4.1889 /_   28.8    1.0069
   -     2       2.4713 /_ -121.2     1.029     4.160        2-3     4.2439 /_  -91.6    1.0202
   -     3       2.4261 /_  118.7    1.0101     4.160        3-1     4.1912 /_  148.0    1.0075
53 ..... 1       2.3845 /_   -2.4   0.99282     4.160        1-2     4.1805 /_   28.7    1.0049
   -     2       2.4696 /_ -121.3    1.0282     4.160        2-3     4.2392 /_  -91.7     1.019
   -     3       2.4223 /_  118.5    1.0085     4.160        3-1     4.1832 /_  147.8    1.0056
54 ..... 1       2.3808 /_   -2.5   0.99128     4.160        1-2     4.1755 /_   28.6    1.0037
   -     2       2.4683 /_ -121.4    1.0277     4.160        2-3     4.2363 /_  -91.8    1.0183
   -     3       2.4199 /_  118.4    1.0076     4.160        3-1     4.1783 /_  147.7    1.0044
55 ..... 1       2.3803 /_   -2.5   0.99108     4.160        1-2     4.1751 /_   28.6    1.0036
   -     2       2.4681 /_ -121.4    1.0276     4.160        2-3      4.236 /_  -91.8    1.0183
   -     3       2.4201 /_  118.5    1.0076     4.160        3-1     4.1781 /_  147.7    1.0044
57 ..... 1       2.3733 /_   -2.9   0.98814     4.160        1-2     4.1612 /_   28.4    1.0003
   -     2       2.4616 /_ -121.6    1.0249     4.160        2-3     4.2253 /_  -92.0    1.0157
   -     3       2.4137 /_  118.2     1.005     4.160        3-1     4.1682 /_  147.4     1.002
56 ..... 1       2.3803 /_   -2.5   0.99104     4.160        1-2      4.175 /_   28.6    1.0036
   -     2       2.4677 /_ -121.4    1.0274     4.160        2-3     4.2357 /_  -91.8    1.0182
   -     3       2.4203 /_  118.5    1.0077     4.160        3-1     4.1781 /_  147.7    1.0044
58 ..... 2       2.4601 /_ -121.6    1.0243     4.160
60 ..... 1       2.3576 /_   -3.5    0.9816     4.160        1-2     4.1313 /_   27.9   0.99311
   -     2       2.4499 /_ -122.0      1.02     4.160        2-3     4.2037 /_  -92.5    1.0105
   -     3       2.3991 /_  117.8   0.99888     4.160        3-1     4.1466 /_  146.8   0.99678
59 ..... 2       2.4593 /_ -121.6     1.024     4.160
61 ..... 1       2.3576 /_   -3.5    0.9816     4.160        1-2     4.1313 /_   27.9   0.99311
   -     2       2.4499 /_ -122.0      1.02     4.160        2-3     4.2037 /_  -92.5    1.0105
   -     3       2.3991 /_  117.8   0.99888     4.160        3-1     4.1466 /_  146.8   0.99678
62 ..... 1       2.3557 /_   -3.5   0.98083     4.160        1-2      4.127 /_   27.9   0.99206
   -     2       2.4472 /_ -122.0    1.0189     4.160        2-3     4.1979 /_  -92.5    1.0091
   -     3       2.3942 /_  117.8   0.99683     4.160        3-1     4.1403 /_  146.9   0.99527
63 ..... 1       2.3543 /_   -3.5   0.98022     4.160        1-2     4.1239 /_   27.9   0.99133
   -     2       2.4451 /_ -122.0     1.018     4.160        2-3     4.1944 /_  -92.5    1.0083
   -     3       2.3917 /_  117.8   0.99582     4.160        3-1     4.1365 /_  146.9   0.99436
64 ..... 1       2.3535 /_   -3.5    0.9799     4.160        1-2     4.1191 /_   27.9   0.99016
   -     2       2.4406 /_ -121.9    1.0162     4.160        2-3     4.1874 /_  -92.5    1.0066
   -     3       2.3865 /_  117.7   0.99366     4.160        3-1     4.1302 /_  146.9   0.99285
65 ..... 1       2.3518 /_   -3.5   0.97921     4.160        1-2     4.1159 /_   27.9   0.98939
   -     2       2.4398 /_ -121.9    1.0158     4.160        2-3     4.1814 /_  -92.5    1.0052
   -     3       2.3793 /_  117.7   0.99065     4.160        3-1     4.1226 /_  146.9   0.99101
66 ..... 1       2.3524 /_   -3.5   0.97945     4.160        1-2     4.1158 /_   27.9   0.98937
   -     2       2.4404 /_ -121.9    1.0161     4.160        2-3     4.1794 /_  -92.5    1.0047
   -     3       2.3757 /_  117.7   0.98914     4.160        3-1     4.1204 /_  146.9   0.99047
67 ..... 1       2.5004 /_   -3.8    1.0411     4.160        1-2      4.303 /_   27.1    1.0344
   -     2       2.5091 /_ -122.2    1.0447     4.160        2-3     4.3276 /_  -92.4    1.0403
   -     3       2.4839 /_  117.6    1.0342     4.160        3-1     4.3474 /_  147.0     1.045
68 ..... 1       2.4968 /_   -3.8    1.0396     4.160
72 ..... 1       2.5014 /_   -3.9    1.0415     4.160        1-2     4.3022 /_   27.0    1.0342
   -     2       2.5071 /_ -122.3    1.0438     4.160        2-3     4.3258 /_  -92.5    1.0399
   -     3       2.4833 /_  117.5     1.034     4.160        3-1     4.3473 /_  146.9     1.045
97 ..... 1        2.498 /_   -3.8    1.0401     4.160        1-2     4.2993 /_   27.0    1.0335
   -     2       2.5079 /_ -122.2    1.0442     4.160        2-3      4.325 /_  -92.5    1.0397
   -     3       2.4821 /_  117.6    1.0334     4.160        3-1     4.3444 /_  147.0    1.0443
69 ..... 1       2.4926 /_   -3.8    1.0378     4.160
70 ..... 1       2.4896 /_   -3.9    1.0366     4.160
71 ..... 1       2.4879 /_   -3.9    1.0359     4.160
73 ..... 3       2.4782 /_  117.5    1.0318     4.160
76 ..... 1       2.5012 /_   -3.9    1.0414     4.160        1-2     4.3017 /_   26.9    1.0341
   -     2       2.5059 /_ -122.4    1.0433     4.160        2-3     4.3251 /_  -92.6    1.0397
   -     3       2.4848 /_  117.5    1.0346     4.160        3-1     4.3487 /_  146.9    1.0454
74 ..... 3       2.4737 /_  117.5      1.03     4.160
75 ..... 3       2.4713 /_  117.4    1.0289     4.160
77 ..... 1        2.504 /_   -4.0    1.0426     4.160        1-2     4.3069 /_   26.8    1.0353
   -     2       2.5087 /_ -122.5    1.0445     4.160        2-3     4.3293 /_  -92.7    1.0407
   -     3       2.4869 /_  117.4    1.0354     4.160        3-1     4.3527 /_  146.8    1.0463
86 ..... 1       2.4991 /_   -4.0    1.0405     4.160        1-2     4.2993 /_   26.8    1.0335
   -     2       2.5017 /_ -122.5    1.0416     4.160        2-3     4.3216 /_  -92.6    1.0388
   -     3       2.4882 /_  117.4     1.036     4.160        3-1     4.3498 /_  146.8    1.0456
78 ..... 1       2.5048 /_   -4.0    1.0429     4.160        1-2     4.3083 /_   26.8    1.0356
   -     2       2.5098 /_ -122.5     1.045     4.160        2-3     4.3306 /_  -92.7     1.041
   -     3       2.4873 /_  117.4    1.0356     4.160        3-1     4.3537 /_  146.8    1.0466
79 ..... 1        2.504 /_   -4.0    1.0426     4.160        1-2     4.3077 /_   26.8    1.0355
   -     2       2.5101 /_ -122.5    1.0451     4.160        2-3     4.3306 /_  -92.7     1.041
   -     3       2.4872 /_  117.4    1.0356     4.160        3-1     4.3535 /_  146.8    1.0465
80 ..... 1       2.5098 /_   -4.1     1.045     4.160        1-2     4.3162 /_   26.7    1.0375
   -     2       2.5139 /_ -122.5    1.0467     4.160        2-3      4.337 /_  -92.8    1.0426
   -     3       2.4893 /_  117.3    1.0365     4.160        3-1     4.3589 /_  146.7    1.0478
81 ..... 1       2.5117 /_   -4.1    1.0458     4.160        1-2     4.3192 /_   26.7    1.0383
   -     2        2.516 /_ -122.5    1.0475     4.160        2-3     4.3398 /_  -92.8    1.0432
   -     3       2.4898 /_  117.2    1.0367     4.160        3-1     4.3609 /_  146.7    1.0483
82 ..... 1       2.5138 /_   -4.2    1.0466     4.160        1-2     4.3235 /_   26.7    1.0393
   -     2        2.519 /_ -122.6    1.0488     4.160        2-3     4.3441 /_  -92.9    1.0443
   -     3       2.4917 /_  117.2    1.0374     4.160        3-1     4.3644 /_  146.7    1.0491
84 ..... 3       2.4836 /_  117.2    1.0341     4.160
83 ..... 1       2.5166 /_   -4.2    1.0478     4.160        1-2     4.3284 /_   26.6    1.0405
   -     2       2.5218 /_ -122.6      1.05     4.160        2-3     4.3485 /_  -92.9    1.0453
   -     3       2.4937 /_  117.2    1.0383     4.160        3-1     4.3681 /_  146.6      1.05
85 ..... 3       2.4807 /_  117.2    1.0329     4.160
87 ..... 1       2.4979 /_   -4.0      1.04     4.160        1-2     4.2981 /_   26.7    1.0332
   -     2       2.4999 /_ -122.6    1.0408     4.160        2-3     4.3196 /_  -92.7    1.0384
   -     3       2.4895 /_  117.4    1.0365     4.160        3-1     4.3499 /_  146.8    1.0457
88 ..... 1       2.4978 /_   -4.0      1.04     4.160
89 ..... 1       2.4969 /_   -4.0    1.0396     4.160        1-2     4.2978 /_   26.7    1.0331
   -     2       2.4992 /_ -122.7    1.0406     4.160        2-3     4.3192 /_  -92.7    1.0383
   -     3       2.4905 /_  117.4    1.0369     4.160        3-1     4.3495 /_  146.8    1.0456
90 ..... 2        2.499 /_ -122.7    1.0405     4.160
91 ..... 1       2.4964 /_   -4.0    1.0394     4.160        1-2     4.2971 /_   26.7     1.033
   -     2       2.4985 /_ -122.7    1.0403     4.160        2-3      4.319 /_  -92.7    1.0382
   -     3        2.491 /_  117.4    1.0371     4.160        3-1     4.3492 /_  146.7    1.0455
92 ..... 3       2.4908 /_  117.3    1.0371     4.160
93 ..... 1       2.4957 /_   -4.0    1.0391     4.160        1-2     4.2963 /_   26.7    1.0328
   -     2       2.4981 /_ -122.7    1.0401     4.160        2-3     4.3184 /_  -92.7    1.0381
   -     3       2.4912 /_  117.4    1.0372     4.160        3-1      4.349 /_  146.7    1.0454
94 ..... 1        2.494 /_   -4.0    1.0384     4.160
95 ..... 1       2.4956 /_   -4.0    1.0391     4.160        1-2      4.296 /_   26.7    1.0327
   -     2       2.4972 /_ -122.7    1.0397     4.160        2-3     4.3177 /_  -92.7    1.0379
   -     3       2.4916 /_  117.4    1.0374     4.160        3-1      4.349 /_  146.7    1.0454
96 ..... 2       2.4966 /_ -122.7    1.0395     4.160
98 ..... 1       2.4976 /_   -3.8    1.0399     4.160        1-2     4.2983 /_   27.0    1.0332
   -     2       2.5073 /_ -122.2    1.0439     4.160        2-3     4.3241 /_  -92.5    1.0395
   -     3       2.4816 /_  117.6    1.0332     4.160        3-1     4.3436 /_  147.0    1.0441
99 ..... 1       2.4983 /_   -3.8    1.0402     4.160        1-2     4.2977 /_   27.0    1.0331
   -     2       2.5053 /_ -122.2    1.0431     4.160        2-3     4.3224 /_  -92.5     1.039
   -     3       2.4808 /_  117.6    1.0329     4.160        3-1     4.3424 /_  147.0    1.0438
100 .... 1       2.4987 /_   -3.8    1.0404     4.160        1-2     4.2976 /_   27.0    1.0331
   -     2       2.5052 /_ -122.2    1.0431     4.160        2-3     4.3221 /_  -92.5     1.039
   -     3       2.4798 /_  117.6    1.0325     4.160        3-1     4.3416 /_  147.0    1.0437
450 .... 1       2.4987 /_   -3.8    1.0404     4.160        1-2     4.2976 /_   27.0    1.0331
   -     2       2.5052 /_ -122.2    1.0431     4.160        2-3     4.3221 /_  -92.5     1.039
   -     3       2.4798 /_  117.6    1.0325     4.160        3-1     4.3416 /_  147.0    1.0437
197 .... 1        2.498 /_   -3.8    1.0401     4.160        1-2     4.2993 /_   27.0    1.0335
   -     2       2.5079 /_ -122.2    1.0442     4.160        2-3      4.325 /_  -92.5    1.0397
   -     3       2.4821 /_  117.6    1.0334     4.160        3-1     4.3444 /_  147.0    1.0443
101 .... 1       2.4961 /_   -3.9    1.0393     4.160        1-2     4.2964 /_   27.0    1.0328
   -     2       2.5073 /_ -122.2    1.0439     4.160        2-3     4.3232 /_  -92.5    1.0392
   -     3       2.4808 /_  117.6    1.0329     4.160        3-1     4.3423 /_  147.0    1.0438
102 .... 3       2.4773 /_  117.6    1.0315     4.160
105 .... 1       2.4929 /_   -3.9    1.0379     4.160        1-2     4.2935 /_   27.0    1.0321
   -     2       2.5069 /_ -122.3    1.0438     4.160        2-3     4.3219 /_  -92.5    1.0389
   -     3       2.4814 /_  117.6    1.0332     4.160        3-1     4.3415 /_  146.9    1.0436
103 .... 3       2.4734 /_  117.6    1.0298     4.160
104 .... 3        2.469 /_  117.5     1.028     4.160
106 .... 2       2.5042 /_ -122.3    1.0426     4.160
108 .... 1       2.4894 /_   -4.0    1.0365     4.160        1-2     4.2905 /_   27.0    1.0314
   -     2       2.5085 /_ -122.3    1.0444     4.160        2-3     4.3218 /_  -92.5    1.0389
   -     3       2.4811 /_  117.7     1.033     4.160        3-1     4.3404 /_  146.9    1.0434
107 .... 2       2.5007 /_ -122.3    1.0412     4.160
109 .... 1       2.4795 /_   -4.1    1.0324     4.160
300 .... 1       2.4894 /_   -4.0    1.0365     4.160        1-2     4.2905 /_   27.0    1.0314
   -     2       2.5085 /_ -122.3    1.0444     4.160        2-3     4.3218 /_  -92.5    1.0389
   -     3       2.4811 /_  117.7     1.033     4.160        3-1     4.3404 /_  146.9    1.0434
110 .... 1       2.4747 /_   -4.1    1.0304     4.160
111 .... 1        2.473 /_   -4.1    1.0296     4.160
112 .... 1       2.4732 /_   -4.1    1.0297     4.160
113 .... 1       2.4681 /_   -4.2    1.0276     4.160
114 .... 1       2.4671 /_   -4.2    1.0272     4.160
135 .... 1       2.3839 /_   -2.3   0.99254     4.160        1-2     4.1758 /_   28.8    1.0038
   -     2       2.4642 /_ -121.2     1.026     4.160        2-3     4.2251 /_  -91.5    1.0157
   -     3       2.4161 /_  118.8     1.006     4.160        3-1     4.1807 /_  148.1     1.005
152 .... 1       2.4055 /_   -1.9    1.0016     4.160        1-2     4.2067 /_   29.0    1.0112
   -     2       2.4741 /_ -121.0    1.0301     4.160        2-3      4.253 /_  -91.3    1.0224
   -     3        2.434 /_  118.9    1.0134     4.160        3-1     4.2077 /_  148.3    1.0115
160R ... 1       2.5049 /_   -3.5    1.0429     4.160        1-2     4.3103 /_   27.3    1.0361
   -     2       2.5111 /_ -122.0    1.0455     4.160        2-3     4.3348 /_  -92.3     1.042
   -     3       2.4891 /_  117.8    1.0363     4.160        3-1     4.3534 /_  147.2    1.0465
160 .... 1       2.3576 /_   -3.5    0.9816     4.160        1-2     4.1313 /_   27.9   0.99311
   -     2       2.4499 /_ -122.0      1.02     4.160        2-3     4.2037 /_  -92.5    1.0105
   -     3       2.3991 /_  117.8   0.99888     4.160        3-1     4.1466 /_  146.8   0.99678
61S .... 1       2.3576 /_   -3.5    0.9816     4.160        1-2     4.1313 /_   27.9   0.99311
   -     2       2.4499 /_ -122.0      1.02     4.160        2-3     4.2037 /_  -92.5    1.0105
   -     3       2.3991 /_  117.8   0.99888     4.160        3-1     4.1466 /_  146.8   0.99678
300_OPEN 1       2.3635 /_   -2.5   0.98407     4.160        1-2     4.1438 /_   28.6   0.99612
   -     2       2.4473 /_ -121.5     1.019     4.160        2-3     4.1993 /_  -91.7    1.0095
   -     3       2.4029 /_  118.6    1.0005     4.160        3-1     4.1511 /_  147.8   0.99787
94_OPEN  1       2.3808 /_   -2.5   0.99128     4.160
610 .... 1      0.27427 /_   -2.7    0.9897     0.480        1-2    0.47669 /_   27.9   0.99311
   -     2      0.27811 /_ -122.0    1.0035     0.480        2-3    0.48504 /_  -92.5    1.0105
   -     3      0.27911 /_  117.0    1.0072     0.480        3-1    0.47845 /_  146.8   0.99678
